version 2
run ARPTest-0-20220311-18:09:34-37828
attr configname ARPTest
attr datetime 20220311-18:09:34
attr experiment ARPTest
attr inifile omnetpp.ini
attr iterationvars ""
attr iterationvars2 $repetition=0
attr measurement ""
attr network ARPTest
attr processid 37828
attr repetition 0
attr replication #0
attr resultdir results
attr runnumber 0
attr seedset 0
param *.configurator.addStaticRoutes false
param *.micro_router*.energyStorageType "\"IdealEnergyStorage\""
param *.micro_router*.wlan[0].radio.bandwidth 2MHz
param *.micro_router*.wlan[0].radio.carrierFrequency 2GHz
param *.micro_router*.wlan[0].radio.energyConsumer.offPowerConsumption 0mW
param *.micro_router*.wlan[0].radio.energyConsumer.receiverBusyPowerConsumption 5mW
param *.micro_router*.wlan[0].radio.energyConsumer.receiverIdlePowerConsumption 2mW
param *.micro_router*.wlan[0].radio.energyConsumer.receiverReceivingPowerConsumption 10mW
param *.micro_router*.wlan[0].radio.energyConsumer.sleepPowerConsumption 1mW
param *.micro_router*.wlan[0].radio.energyConsumer.switchingPowerConsumption 1mW
param *.micro_router*.wlan[0].radio.energyConsumer.transmitterTransmittingPowerConsumption 100mW
param *.micro_router*.wlan[0].radio.energyConsumerType "\"StateBasedEnergyConsumer\""
param *.micro_router*.wlan[0].radio.receiver.energyDetection -85dBm
param *.micro_router*.wlan[0].radio.receiver.sensitivity -85dBm
param *.micro_router*.wlan[0].radio.receiver.snirThreshold 4dB
param *.micro_router*.wlan[0].radio.transmitter.communicationRange 250m
param *.micro_router*.wlan[0].radio.transmitter.headerBitLength 0b
param *.micro_router*.wlan[0].radio.transmitter.power 1.4mW
param *.micro_router*.wlan[0].radio.transmitter.preambleDuration 10us
param *.micro_router*.wlan[0].radio.typename "\"IdealWirelessNic\""
param *.micro_router*.wlan[0].radioType "\"APSKScalarRadio\""
param ARPTest.micro_router0.routingTable.routingFile "\"whost0.mrt\""
param ARPTest.micro_router1.routingTable.routingFile "\"whost1.mrt\""

scalar ARPTest.switch1.relayUnit 	"number of received BPDUs from STP module" 	0
scalar ARPTest.switch1.relayUnit 	"number of received frames from network (including BPDUs)" 	8
scalar ARPTest.switch1.relayUnit 	"number of dropped frames (including BPDUs)" 	0
scalar ARPTest.switch1.relayUnit 	"number of delivered BPDUs to the STP module" 	0
scalar ARPTest.switch1.relayUnit 	"number of dispatched BPDU frames to the network" 	0
scalar ARPTest.switch1.relayUnit 	"number of dispatched non-BDPU frames to the network" 	9
scalar ARPTest.switch1.eth[0].mac 	"simulated time" 	62.66
scalar ARPTest.switch1.eth[0].mac 	full-duplex 	1
scalar ARPTest.switch1.eth[0].mac 	"frames/sec sent" 	0.0638365783594
scalar ARPTest.switch1.eth[0].mac 	"frames/sec rcvd" 	0.0638365783594
scalar ARPTest.switch1.eth[0].mac 	"bits/sec sent" 	32.684328120013
scalar ARPTest.switch1.eth[0].mac 	"bits/sec rcvd" 	0
scalar ARPTest.switch1.eth[0].mac 	"rx channel idle (%)" 	99.999996731567
scalar ARPTest.switch1.eth[0].mac 	"rx channel utilization (%)" 	3.2684328120013e-06
scalar ARPTest.switch1.eth[0].mac 	"rx channel collision (%)" 	0
scalar ARPTest.switch1.eth[0].mac 	collisions 	0
scalar ARPTest.switch1.eth[0].mac 	backoffs 	0
scalar ARPTest.switch1.eth[0].mac 	backoff:count 	0
attr interpolationmode  none
attr title  "backoff, count"
scalar ARPTest.switch1.eth[0].mac 	collision:count 	0
attr interpolationmode  none
attr title  "collision, count"
scalar ARPTest.switch1.eth[0].mac 	droppedPkNotForUs:count 	0
attr interpolationmode  none
attr source  dropPkNotForUs
attr title  "packets dropped/not for us, count"
scalar ARPTest.switch1.eth[0].mac 	droppedPkNotForUs:sum(packetBytes) 	0
attr interpolationmode  none
attr source  dropPkNotForUs
attr title  "packets dropped/not for us, sum(packetBytes)"
scalar ARPTest.switch1.eth[0].mac 	droppedPkIfaceDown:count 	0
attr interpolationmode  none
attr source  dropPkIfaceDown
attr title  "packets dropped/interface down, count"
scalar ARPTest.switch1.eth[0].mac 	droppedPkIfaceDown:sum(packetBytes) 	0
attr interpolationmode  none
attr source  dropPkIfaceDown
attr title  "packets dropped/interface down, sum(packetBytes)"
scalar ARPTest.switch1.eth[0].mac 	droppedPkBitError:count 	0
attr interpolationmode  none
attr source  dropPkBitError
attr title  "packets dropped/bit error, count"
scalar ARPTest.switch1.eth[0].mac 	droppedPkBitError:sum(packetBytes) 	0
attr interpolationmode  none
attr source  dropPkBitError
attr title  "packets dropped/bit error, sum(packetBytes)"
scalar ARPTest.switch1.eth[0].mac 	rxPkFromHL:count 	4
attr interpolationmode  none
attr source  rxPkFromHL
attr title  "packet bytes from higher layer, count"
scalar ARPTest.switch1.eth[0].mac 	rxPkFromHL:sum(packetBytes) 	256
attr interpolationmode  none
attr source  rxPkFromHL
attr title  "packet bytes from higher layer, sum(packetBytes)"
scalar ARPTest.switch1.eth[0].mac 	rxPausePkUnits:count 	0
attr interpolationmode  none
attr title  "pause units received, count"
scalar ARPTest.switch1.eth[0].mac 	rxPausePkUnits:sum 	0
attr interpolationmode  none
attr title  "pause units received, sum"
scalar ARPTest.switch1.eth[0].mac 	txPausePkUnits:count 	0
attr interpolationmode  none
attr title  "pause units sent, count"
scalar ARPTest.switch1.eth[0].mac 	txPausePkUnits:sum 	0
attr interpolationmode  none
attr title  "pause units sent, sum"
scalar ARPTest.switch1.eth[0].mac 	rxPkOk:count 	4
attr interpolationmode  none
attr source  rxPkOk
attr title  "packets received OK, count"
scalar ARPTest.switch1.eth[0].mac 	rxPkOk:sum(packetBytes) 	0
attr interpolationmode  none
attr source  rxPkOk
attr title  "packets received OK, sum(packetBytes)"
scalar ARPTest.switch1.eth[0].mac 	txPk:count 	4
attr interpolationmode  none
attr source  txPk
attr title  "packets transmitted, count"
scalar ARPTest.switch1.eth[0].mac 	txPk:sum(packetBytes) 	256
attr interpolationmode  none
attr source  txPk
attr title  "packets transmitted, sum(packetBytes)"
scalar ARPTest.switch1.eth[0].mac 	passedUpPk:count 	4
attr interpolationmode  none
attr source  packetSentToUpper
attr title  "packets passed to higher layer, count"
scalar ARPTest.switch1.eth[0].mac 	passedUpPk:sum(packetBytes) 	0
attr interpolationmode  none
attr source  packetSentToUpper
attr title  "packets passed to higher layer, sum(packetBytes)"
scalar ARPTest.switch1.eth[1].mac 	"simulated time" 	62.66
scalar ARPTest.switch1.eth[1].mac 	full-duplex 	1
scalar ARPTest.switch1.eth[1].mac 	"frames/sec sent" 	0.0638365783594
scalar ARPTest.switch1.eth[1].mac 	"frames/sec rcvd" 	0.0638365783594
scalar ARPTest.switch1.eth[1].mac 	"bits/sec sent" 	32.684328120013
scalar ARPTest.switch1.eth[1].mac 	"bits/sec rcvd" 	0
scalar ARPTest.switch1.eth[1].mac 	"rx channel idle (%)" 	99.999996731567
scalar ARPTest.switch1.eth[1].mac 	"rx channel utilization (%)" 	3.2684328120013e-06
scalar ARPTest.switch1.eth[1].mac 	"rx channel collision (%)" 	0
scalar ARPTest.switch1.eth[1].mac 	collisions 	0
scalar ARPTest.switch1.eth[1].mac 	backoffs 	0
scalar ARPTest.switch1.eth[1].mac 	backoff:count 	0
attr interpolationmode  none
attr title  "backoff, count"
scalar ARPTest.switch1.eth[1].mac 	collision:count 	0
attr interpolationmode  none
attr title  "collision, count"
scalar ARPTest.switch1.eth[1].mac 	droppedPkNotForUs:count 	0
attr interpolationmode  none
attr source  dropPkNotForUs
attr title  "packets dropped/not for us, count"
scalar ARPTest.switch1.eth[1].mac 	droppedPkNotForUs:sum(packetBytes) 	0
attr interpolationmode  none
attr source  dropPkNotForUs
attr title  "packets dropped/not for us, sum(packetBytes)"
scalar ARPTest.switch1.eth[1].mac 	droppedPkIfaceDown:count 	0
attr interpolationmode  none
attr source  dropPkIfaceDown
attr title  "packets dropped/interface down, count"
scalar ARPTest.switch1.eth[1].mac 	droppedPkIfaceDown:sum(packetBytes) 	0
attr interpolationmode  none
attr source  dropPkIfaceDown
attr title  "packets dropped/interface down, sum(packetBytes)"
scalar ARPTest.switch1.eth[1].mac 	droppedPkBitError:count 	0
attr interpolationmode  none
attr source  dropPkBitError
attr title  "packets dropped/bit error, count"
scalar ARPTest.switch1.eth[1].mac 	droppedPkBitError:sum(packetBytes) 	0
attr interpolationmode  none
attr source  dropPkBitError
attr title  "packets dropped/bit error, sum(packetBytes)"
scalar ARPTest.switch1.eth[1].mac 	rxPkFromHL:count 	4
attr interpolationmode  none
attr source  rxPkFromHL
attr title  "packet bytes from higher layer, count"
scalar ARPTest.switch1.eth[1].mac 	rxPkFromHL:sum(packetBytes) 	256
attr interpolationmode  none
attr source  rxPkFromHL
attr title  "packet bytes from higher layer, sum(packetBytes)"
scalar ARPTest.switch1.eth[1].mac 	rxPausePkUnits:count 	0
attr interpolationmode  none
attr title  "pause units received, count"
scalar ARPTest.switch1.eth[1].mac 	rxPausePkUnits:sum 	0
attr interpolationmode  none
attr title  "pause units received, sum"
scalar ARPTest.switch1.eth[1].mac 	txPausePkUnits:count 	0
attr interpolationmode  none
attr title  "pause units sent, count"
scalar ARPTest.switch1.eth[1].mac 	txPausePkUnits:sum 	0
attr interpolationmode  none
attr title  "pause units sent, sum"
scalar ARPTest.switch1.eth[1].mac 	rxPkOk:count 	4
attr interpolationmode  none
attr source  rxPkOk
attr title  "packets received OK, count"
scalar ARPTest.switch1.eth[1].mac 	rxPkOk:sum(packetBytes) 	0
attr interpolationmode  none
attr source  rxPkOk
attr title  "packets received OK, sum(packetBytes)"
scalar ARPTest.switch1.eth[1].mac 	txPk:count 	4
attr interpolationmode  none
attr source  txPk
attr title  "packets transmitted, count"
scalar ARPTest.switch1.eth[1].mac 	txPk:sum(packetBytes) 	256
attr interpolationmode  none
attr source  txPk
attr title  "packets transmitted, sum(packetBytes)"
scalar ARPTest.switch1.eth[1].mac 	passedUpPk:count 	4
attr interpolationmode  none
attr source  packetSentToUpper
attr title  "packets passed to higher layer, count"
scalar ARPTest.switch1.eth[1].mac 	passedUpPk:sum(packetBytes) 	0
attr interpolationmode  none
attr source  packetSentToUpper
attr title  "packets passed to higher layer, sum(packetBytes)"
scalar ARPTest.switch1.eth[2].mac 	"simulated time" 	62.66
scalar ARPTest.switch1.eth[2].mac 	full-duplex 	1
scalar ARPTest.switch1.eth[2].mac 	"frames/sec sent" 	0.01595914458985
scalar ARPTest.switch1.eth[2].mac 	"frames/sec rcvd" 	0
scalar ARPTest.switch1.eth[2].mac 	"bits/sec sent" 	8.1710820300032
scalar ARPTest.switch1.eth[2].mac 	"bits/sec rcvd" 	0
scalar ARPTest.switch1.eth[2].mac 	"rx channel idle (%)" 	100
scalar ARPTest.switch1.eth[2].mac 	"rx channel utilization (%)" 	0
scalar ARPTest.switch1.eth[2].mac 	"rx channel collision (%)" 	0
scalar ARPTest.switch1.eth[2].mac 	collisions 	0
scalar ARPTest.switch1.eth[2].mac 	backoffs 	0
scalar ARPTest.switch1.eth[2].mac 	backoff:count 	0
attr interpolationmode  none
attr title  "backoff, count"
scalar ARPTest.switch1.eth[2].mac 	collision:count 	0
attr interpolationmode  none
attr title  "collision, count"
scalar ARPTest.switch1.eth[2].mac 	droppedPkNotForUs:count 	0
attr interpolationmode  none
attr source  dropPkNotForUs
attr title  "packets dropped/not for us, count"
scalar ARPTest.switch1.eth[2].mac 	droppedPkNotForUs:sum(packetBytes) 	0
attr interpolationmode  none
attr source  dropPkNotForUs
attr title  "packets dropped/not for us, sum(packetBytes)"
scalar ARPTest.switch1.eth[2].mac 	droppedPkIfaceDown:count 	0
attr interpolationmode  none
attr source  dropPkIfaceDown
attr title  "packets dropped/interface down, count"
scalar ARPTest.switch1.eth[2].mac 	droppedPkIfaceDown:sum(packetBytes) 	0
attr interpolationmode  none
attr source  dropPkIfaceDown
attr title  "packets dropped/interface down, sum(packetBytes)"
scalar ARPTest.switch1.eth[2].mac 	droppedPkBitError:count 	0
attr interpolationmode  none
attr source  dropPkBitError
attr title  "packets dropped/bit error, count"
scalar ARPTest.switch1.eth[2].mac 	droppedPkBitError:sum(packetBytes) 	0
attr interpolationmode  none
attr source  dropPkBitError
attr title  "packets dropped/bit error, sum(packetBytes)"
scalar ARPTest.switch1.eth[2].mac 	rxPkFromHL:count 	1
attr interpolationmode  none
attr source  rxPkFromHL
attr title  "packet bytes from higher layer, count"
scalar ARPTest.switch1.eth[2].mac 	rxPkFromHL:sum(packetBytes) 	64
attr interpolationmode  none
attr source  rxPkFromHL
attr title  "packet bytes from higher layer, sum(packetBytes)"
scalar ARPTest.switch1.eth[2].mac 	rxPausePkUnits:count 	0
attr interpolationmode  none
attr title  "pause units received, count"
scalar ARPTest.switch1.eth[2].mac 	rxPausePkUnits:sum 	0
attr interpolationmode  none
attr title  "pause units received, sum"
scalar ARPTest.switch1.eth[2].mac 	txPausePkUnits:count 	0
attr interpolationmode  none
attr title  "pause units sent, count"
scalar ARPTest.switch1.eth[2].mac 	txPausePkUnits:sum 	0
attr interpolationmode  none
attr title  "pause units sent, sum"
scalar ARPTest.switch1.eth[2].mac 	rxPkOk:count 	0
attr interpolationmode  none
attr source  rxPkOk
attr title  "packets received OK, count"
scalar ARPTest.switch1.eth[2].mac 	rxPkOk:sum(packetBytes) 	0
attr interpolationmode  none
attr source  rxPkOk
attr title  "packets received OK, sum(packetBytes)"
scalar ARPTest.switch1.eth[2].mac 	txPk:count 	1
attr interpolationmode  none
attr source  txPk
attr title  "packets transmitted, count"
scalar ARPTest.switch1.eth[2].mac 	txPk:sum(packetBytes) 	64
attr interpolationmode  none
attr source  txPk
attr title  "packets transmitted, sum(packetBytes)"
scalar ARPTest.switch1.eth[2].mac 	passedUpPk:count 	0
attr interpolationmode  none
attr source  packetSentToUpper
attr title  "packets passed to higher layer, count"
scalar ARPTest.switch1.eth[2].mac 	passedUpPk:sum(packetBytes) 	0
attr interpolationmode  none
attr source  packetSentToUpper
attr title  "packets passed to higher layer, sum(packetBytes)"
scalar ARPTest.node0 	"#Total Bytes Sent" 	298
scalar ARPTest.node0 	"#total Bytes Received" 	298
scalar ARPTest.node0 	"#Simulation Time (sec)" 	62.66
scalar ARPTest.node0 	"#Bw sent utilization in KBytes per sec" 	0
scalar ARPTest.node1 	"#Total Bytes Sent" 	298
scalar ARPTest.node1 	"#total Bytes Received" 	298
scalar ARPTest.node1 	"#Simulation Time (sec)" 	62.66
scalar ARPTest.node1 	"#Bw sent utilization in KBytes per sec" 	0
scalar ARPTest.node2 	"#Total Bytes Sent" 	0
scalar ARPTest.node2 	"#total Bytes Received" 	46
scalar ARPTest.node2 	"#Simulation Time (sec)" 	62.66
scalar ARPTest.node2 	"#Bw sent utilization in KBytes per sec" 	0
